OPT_V8/network_debug.txt
Pandapower Network Debug Info
==================================================

BUS:
          name  vn_kv type  zone  in_service
0        Bus 8    0.4    b  None        True
1        Bus 9    0.4    b  None        True
2       Bus 10    0.4    b  None        True
3       Bus 11    0.4    b  None        True
4       Bus 16    0.4    b  None        True
5       Bus 17    0.4    b  None        True
6       Bus 18    0.4    b  None        True
7       Bus 19    0.4    b  None        True
8       Bus 20    0.4    b  None        True
9       Bus 21   15.0    b  None        True
10      Bus 22   15.0    b  None        True
11      Bus 23   15.0    b  None        True
12      Bus 24   15.0    b  None        True
13      Bus 25   15.0    b  None        True
14      Bus 26   15.0    b  None        True
15    Sub MV 2   15.0    b  None        True
16    Sub LV 2    0.4    b  None        True
17    Sub MV 5   15.0    b  None        True
18    Sub LV 5    0.4    b  None        True
19  Slack HV 0   70.0    b  None        True
20  Slack MV 0   15.0    b  None        True
21  Slack HV 1   70.0    b  None        True
22  Slack MV 1   15.0    b  None        True
--------------------------------------------------

LOAD:
            name  bus          p_mw    q_mvar  const_z_percent  const_i_percent  sn_mva  scaling  in_service type
0      Load 8 T1    0  1.072802e-03  0.000913              0.0              0.0     NaN      1.0        True  wye
1      Load 8 T2    0  8.366410e-04  0.000951              0.0              0.0     NaN      1.0        True  wye
2      Load 8 T3    0  1.047127e-03  0.001094              0.0              0.0     NaN      1.0        True  wye
3      Load 8 T4    0  1.136768e-03  0.000978              0.0              0.0     NaN      1.0        True  wye
4      Load 8 T5    0  1.133820e-03  0.001184              0.0              0.0     NaN      1.0        True  wye
5      Load 8 T6    0  1.006007e-03  0.001189              0.0              0.0     NaN      1.0        True  wye
6      Load 8 T7    0  1.052415e-03  0.001135              0.0              0.0     NaN      1.0        True  wye
7      Load 8 T8    0  9.013383e-04  0.000836              0.0              0.0     NaN      1.0        True  wye
8      Load 8 T9    0  1.024560e-04  0.000830              0.0              0.0     NaN      1.0        True  wye
9     Load 8 T10    0 -2.698183e-05  0.000915              0.0              0.0     NaN      1.0        True  wye
10    Load 8 T11    0 -1.162818e-04  0.000944              0.0              0.0     NaN      1.0        True  wye
11    Load 8 T12    0 -1.491944e-04  0.001082              0.0              0.0     NaN      1.0        True  wye
12     Load 9 T1    1  1.609203e-03  0.001826              0.0              0.0     NaN      1.0        True  wye
13     Load 9 T2    1  1.254962e-03  0.001903              0.0              0.0     NaN      1.0        True  wye
14     Load 9 T3    1  1.570690e-03  0.002189              0.0              0.0     NaN      1.0        True  wye
15     Load 9 T4    1  1.705152e-03  0.001955              0.0              0.0     NaN      1.0        True  wye
16     Load 9 T5    1  1.700730e-03  0.002368              0.0              0.0     NaN      1.0        True  wye
17     Load 9 T6    1  1.509011e-03  0.002377              0.0              0.0     NaN      1.0        True  wye
18     Load 9 T7    1  1.578623e-03  0.002271              0.0              0.0     NaN      1.0        True  wye
19     Load 9 T8    1 -4.533217e-06  0.001673              0.0              0.0     NaN      1.0        True  wye
20     Load 9 T9    1 -4.489162e-06  0.001660              0.0              0.0     NaN      1.0        True  wye
21    Load 9 T10    1  1.264714e-03  0.001831              0.0              0.0     NaN      1.0        True  wye
22    Load 9 T11    1  8.846963e-05  0.001889              0.0              0.0     NaN      1.0        True  wye
23    Load 9 T12    1  3.910068e-05  0.002164              0.0              0.0     NaN      1.0        True  wye
24    Load 10 T1    2  2.145604e-03  0.002738              0.0              0.0     NaN      1.0        True  wye
25    Load 10 T2    2  1.673282e-03  0.002854              0.0              0.0     NaN      1.0        True  wye
26    Load 10 T3    2  2.094253e-03  0.003283              0.0              0.0     NaN      1.0        True  wye
27    Load 10 T4    2  2.273536e-03  0.002933              0.0              0.0     NaN      1.0        True  wye
28    Load 10 T5    2  2.267640e-03  0.003552              0.0              0.0     NaN      1.0        True  wye
29    Load 10 T6    2  2.012014e-03  0.003566              0.0              0.0     NaN      1.0        True  wye
30    Load 10 T7    2  2.104830e-03  0.003406              0.0              0.0     NaN      1.0        True  wye
31    Load 10 T8    2 -2.509761e-04  0.002509              0.0              0.0     NaN      1.0        True  wye
32    Load 10 T9    2 -1.239450e-04  0.002490              0.0              0.0     NaN      1.0        True  wye
33   Load 10 T10    2 -1.271065e-03  0.002746              0.0              0.0     NaN      1.0        True  wye
34   Load 10 T11    2  0.000000e+00  0.002833              0.0              0.0     NaN      1.0        True  wye
35   Load 10 T12    2 -6.582526e-05  0.003246              0.0              0.0     NaN      1.0        True  wye
36    Load 11 T1    3  2.682005e-03  0.003651              0.0              0.0     NaN      1.0        True  wye
37    Load 11 T2    3  2.091603e-03  0.003806              0.0              0.0     NaN      1.0        True  wye
38    Load 11 T3    3  2.617816e-03  0.004378              0.0              0.0     NaN      1.0        True  wye
39    Load 11 T4    3  2.841920e-03  0.003910              0.0              0.0     NaN      1.0        True  wye
40    Load 11 T5    3  2.834550e-03  0.004735              0.0              0.0     NaN      1.0        True  wye
41    Load 11 T6    3  2.515018e-03  0.004754              0.0              0.0     NaN      1.0        True  wye
42    Load 11 T7    3  2.631038e-03  0.004541              0.0              0.0     NaN      1.0        True  wye
43    Load 11 T8    3  2.509761e-04  0.003346              0.0              0.0     NaN      1.0        True  wye
44    Load 11 T9    3 -1.549313e-04  0.003320              0.0              0.0     NaN      1.0        True  wye
45   Load 11 T10    3  8.193497e-05  0.003662              0.0              0.0     NaN      1.0        True  wye
46   Load 11 T11    3  0.000000e+00  0.003778              0.0              0.0     NaN      1.0        True  wye
47   Load 11 T12    3  1.402776e-04  0.004328              0.0              0.0     NaN      1.0        True  wye
48    Load 16 T1    4  3.218405e-03  0.004564              0.0              0.0     NaN      1.0        True  wye
49    Load 16 T2    4  2.509923e-03  0.004757              0.0              0.0     NaN      1.0        True  wye
50    Load 16 T3    4  3.141380e-03  0.005472              0.0              0.0     NaN      1.0        True  wye
51    Load 16 T4    4  3.410304e-03  0.004888              0.0              0.0     NaN      1.0        True  wye
52    Load 16 T5    4  3.401460e-03  0.005919              0.0              0.0     NaN      1.0        True  wye
53    Load 16 T6    4  3.018021e-03  0.005943              0.0              0.0     NaN      1.0        True  wye
54    Load 16 T7    4  3.157246e-03  0.005677              0.0              0.0     NaN      1.0        True  wye
55    Load 16 T8    4 -1.727057e-05  0.004182              0.0              0.0     NaN      1.0        True  wye
56    Load 16 T9    4 -1.559893e-05  0.004150              0.0              0.0     NaN      1.0        True  wye
57   Load 16 T10    4 -1.720331e-05  0.004577              0.0              0.0     NaN      1.0        True  wye
58   Load 16 T11    4 -3.656130e-04  0.004722              0.0              0.0     NaN      1.0        True  wye
59   Load 16 T12    4 -4.643509e-04  0.005410              0.0              0.0     NaN      1.0        True  wye
60    Load 17 T1    5  3.754806e-03  0.005477              0.0              0.0     NaN      1.0        True  wye
61    Load 17 T2    5  2.928244e-03  0.005709              0.0              0.0     NaN      1.0        True  wye
62    Load 17 T3    5  3.664943e-03  0.006567              0.0              0.0     NaN      1.0        True  wye
63    Load 17 T4    5  3.978688e-03  0.005865              0.0              0.0     NaN      1.0        True  wye
64    Load 17 T5    5  3.968370e-03  0.007103              0.0              0.0     NaN      1.0        True  wye
65    Load 17 T6    5  3.521025e-03  0.007131              0.0              0.0     NaN      1.0        True  wye
66    Load 17 T7    5  3.683453e-03  0.006812              0.0              0.0     NaN      1.0        True  wye
67    Load 17 T8    5 -1.353321e-05  0.005018              0.0              0.0     NaN      1.0        True  wye
68    Load 17 T9    5 -3.805355e-05  0.004980              0.0              0.0     NaN      1.0        True  wye
69   Load 17 T10    5 -1.094172e-05  0.005493              0.0              0.0     NaN      1.0        True  wye
70   Load 17 T11    5 -1.316986e-05  0.005667              0.0              0.0     NaN      1.0        True  wye
71   Load 17 T12    5  3.974469e-04  0.006492              0.0              0.0     NaN      1.0        True  wye
72    Load 18 T1    6  1.287362e-03  0.000913              0.0              0.0     NaN      1.0        True  wye
73    Load 18 T2    6  1.003969e-03  0.000951              0.0              0.0     NaN      1.0        True  wye
74    Load 18 T3    6  1.256552e-03  0.001094              0.0              0.0     NaN      1.0        True  wye
75    Load 18 T4    6  1.364122e-03  0.000978              0.0              0.0     NaN      1.0        True  wye
76    Load 18 T5    6  1.360584e-03  0.001184              0.0              0.0     NaN      1.0        True  wye
77    Load 18 T6    6  1.207209e-03  0.001189              0.0              0.0     NaN      1.0        True  wye
78    Load 18 T7    6  1.262898e-03  0.001135              0.0              0.0     NaN      1.0        True  wye
79    Load 18 T8    6  0.000000e+00  0.000836              0.0              0.0     NaN      1.0        True  wye
80    Load 18 T9    6  0.000000e+00  0.000830              0.0              0.0     NaN      1.0        True  wye
81   Load 18 T10    6 -4.714419e-05  0.000915              0.0              0.0     NaN      1.0        True  wye
82   Load 18 T11    6  7.436703e-05  0.000944              0.0              0.0     NaN      1.0        True  wye
83   Load 18 T12    6  3.487188e-05  0.001082              0.0              0.0     NaN      1.0        True  wye
84    Load 19 T1    7  1.931043e-03  0.001826              0.0              0.0     NaN      1.0        True  wye
85    Load 19 T2    7  1.505954e-03  0.001903              0.0              0.0     NaN      1.0        True  wye
86    Load 19 T3    7  1.884828e-03  0.002189              0.0              0.0     NaN      1.0        True  wye
87    Load 19 T4    7  2.046182e-03  0.001955              0.0              0.0     NaN      1.0        True  wye
88    Load 19 T5    7  2.040876e-03  0.002368              0.0              0.0     NaN      1.0        True  wye
89    Load 19 T6    7  1.810813e-03  0.002377              0.0              0.0     NaN      1.0        True  wye
90    Load 19 T7    7  1.894347e-03  0.002271              0.0              0.0     NaN      1.0        True  wye
91    Load 19 T8    7 -2.900321e-06  0.001673              0.0              0.0     NaN      1.0        True  wye
92    Load 19 T9    7 -1.148255e-04  0.001660              0.0              0.0     NaN      1.0        True  wye
93   Load 19 T10    7 -3.174341e-06  0.001831              0.0              0.0     NaN      1.0        True  wye
94   Load 19 T11    7 -3.274930e-06  0.001889              0.0              0.0     NaN      1.0        True  wye
95   Load 19 T12    7 -3.751855e-06  0.002164              0.0              0.0     NaN      1.0        True  wye
96    Load 20 T1    8  2.360164e-03  0.002738              0.0              0.0     NaN      1.0        True  wye
97    Load 20 T2    8  1.840610e-03  0.002854              0.0              0.0     NaN      1.0        True  wye
98    Load 20 T3    8  2.303678e-03  0.003283              0.0              0.0     NaN      1.0        True  wye
99    Load 20 T4    8  2.500890e-03  0.002933              0.0              0.0     NaN      1.0        True  wye
100   Load 20 T5    8  2.494404e-03  0.003552              0.0              0.0     NaN      1.0        True  wye
101   Load 20 T6    8  2.213216e-03  0.003566              0.0              0.0     NaN      1.0        True  wye
102   Load 20 T7    8  2.315313e-03  0.003406              0.0              0.0     NaN      1.0        True  wye
103   Load 20 T8    8 -2.956756e-06  0.002509              0.0              0.0     NaN      1.0        True  wye
104   Load 20 T9    8  1.367774e-04  0.002490              0.0              0.0     NaN      1.0        True  wye
105  Load 20 T10    8 -3.641662e-06  0.002746              0.0              0.0     NaN      1.0        True  wye
106  Load 20 T11    8  2.731169e-04  0.002833              0.0              0.0     NaN      1.0        True  wye
107  Load 20 T12    8 -3.824859e-06  0.003246              0.0              0.0     NaN      1.0        True  wye
108   Load 21 T1    9  1.072802e-02  0.009128              0.0              0.0     NaN      1.0        True  wye
109   Load 21 T2    9  8.366410e-03  0.009514              0.0              0.0     NaN      1.0        True  wye
110   Load 21 T3    9  1.047127e-02  0.010945              0.0              0.0     NaN      1.0        True  wye
111   Load 21 T4    9  1.136768e-02  0.009776              0.0              0.0     NaN      1.0        True  wye
112   Load 21 T5    9  1.133820e-02  0.011838              0.0              0.0     NaN      1.0        True  wye
113   Load 21 T6    9  1.006007e-02  0.011885              0.0              0.0     NaN      1.0        True  wye
114   Load 21 T7    9  1.052415e-02  0.011353              0.0              0.0     NaN      1.0        True  wye
115   Load 21 T8    9  9.888841e-07  0.008364              0.0              0.0     NaN      1.0        True  wye
116   Load 21 T9    9 -2.613789e-07  0.008301              0.0              0.0     NaN      1.0        True  wye
117  Load 21 T10    9 -2.959446e-07  0.009154              0.0              0.0     NaN      1.0        True  wye
118  Load 21 T11    9 -3.072971e-07  0.009444              0.0              0.0     NaN      1.0        True  wye
119  Load 21 T12    9 -3.294336e-04  0.010820              0.0              0.0     NaN      1.0        True  wye
120   Load 22 T1   10  1.180082e-02  0.008215              0.0              0.0     NaN      1.0        True  wye
121   Load 22 T2   10  9.203051e-03  0.008563              0.0              0.0     NaN      1.0        True  wye
122   Load 22 T3   10  1.151839e-02  0.009850              0.0              0.0     NaN      1.0        True  wye
123   Load 22 T4   10  1.250445e-02  0.008798              0.0              0.0     NaN      1.0        True  wye
124   Load 22 T5   10  1.247202e-02  0.010655              0.0              0.0     NaN      1.0        True  wye
125   Load 22 T6   10  1.106608e-02  0.010697              0.0              0.0     NaN      1.0        True  wye
126   Load 22 T7   10  1.157657e-02  0.010218              0.0              0.0     NaN      1.0        True  wye
127   Load 22 T8   10  0.000000e+00  0.007528              0.0              0.0     NaN      1.0        True  wye
128   Load 22 T9   10  0.000000e+00  0.007471              0.0              0.0     NaN      1.0        True  wye
129  Load 22 T10   10 -4.655609e-06  0.008239              0.0              0.0     NaN      1.0        True  wye
130  Load 22 T11   10 -1.596107e-06  0.008500              0.0              0.0     NaN      1.0        True  wye
131  Load 22 T12   10 -3.636350e-04  0.009738              0.0              0.0     NaN      1.0        True  wye
132   Load 23 T1   11  1.287362e-02  0.010040              0.0              0.0     NaN      1.0        True  wye
133   Load 23 T2   11  1.003969e-02  0.010466              0.0              0.0     NaN      1.0        True  wye
134   Load 23 T3   11  1.256552e-02  0.012039              0.0              0.0     NaN      1.0        True  wye
135   Load 23 T4   11  1.364122e-02  0.010753              0.0              0.0     NaN      1.0        True  wye
136   Load 23 T5   11  1.360584e-02  0.013022              0.0              0.0     NaN      1.0        True  wye
137   Load 23 T6   11  1.207209e-02  0.013074              0.0              0.0     NaN      1.0        True  wye
138   Load 23 T7   11  1.262898e-02  0.012489              0.0              0.0     NaN      1.0        True  wye
139   Load 23 T8   11 -8.609343e-04  0.009201              0.0              0.0     NaN      1.0        True  wye
140   Load 23 T9   11  2.170249e-04  0.009131              0.0              0.0     NaN      1.0        True  wye
141  Load 23 T10   11  0.000000e+00  0.010070              0.0              0.0     NaN      1.0        True  wye
142  Load 23 T11   11  7.016120e-05  0.010389              0.0              0.0     NaN      1.0        True  wye
143  Load 23 T12   11  3.656558e-04  0.011902              0.0              0.0     NaN      1.0        True  wye
144   Load 24 T1   12  1.072802e-02  0.005477              0.0              0.0     NaN      1.0        True  wye
145   Load 24 T2   12  8.366410e-03  0.005709              0.0              0.0     NaN      1.0        True  wye
146   Load 24 T3   12  1.047127e-02  0.006567              0.0              0.0     NaN      1.0        True  wye
147   Load 24 T4   12  1.136768e-02  0.005865              0.0              0.0     NaN      1.0        True  wye
148   Load 24 T5   12  1.133820e-02  0.007103              0.0              0.0     NaN      1.0        True  wye
149   Load 24 T6   12  1.006007e-02  0.007131              0.0              0.0     NaN      1.0        True  wye
150   Load 24 T7   12  1.052415e-02  0.006812              0.0              0.0     NaN      1.0        True  wye
151   Load 24 T8   12  0.000000e+00  0.005018              0.0              0.0     NaN      1.0        True  wye
152   Load 24 T9   12  0.000000e+00  0.004980              0.0              0.0     NaN      1.0        True  wye
153  Load 24 T10   12  4.193001e-05  0.005493              0.0              0.0     NaN      1.0        True  wye
154  Load 24 T11   12  0.000000e+00  0.005667              0.0              0.0     NaN      1.0        True  wye
155  Load 24 T12   12 -3.291481e-04  0.006492              0.0              0.0     NaN      1.0        True  wye
156   Load 25 T1   13  1.287362e-02  0.009128              0.0              0.0     NaN      1.0        True  wye
157   Load 25 T2   13  1.003969e-02  0.009514              0.0              0.0     NaN      1.0        True  wye
158   Load 25 T3   13  1.256552e-02  0.010945              0.0              0.0     NaN      1.0        True  wye
159   Load 25 T4   13  1.364122e-02  0.009776              0.0              0.0     NaN      1.0        True  wye
160   Load 25 T5   13  1.360584e-02  0.011838              0.0              0.0     NaN      1.0        True  wye
161   Load 25 T6   13  1.207209e-02  0.011885              0.0              0.0     NaN      1.0        True  wye
162   Load 25 T7   13  1.262898e-02  0.011353              0.0              0.0     NaN      1.0        True  wye
163   Load 25 T8   13  0.000000e+00  0.008364              0.0              0.0     NaN      1.0        True  wye
164   Load 25 T9   13 -3.966911e-06  0.008301              0.0              0.0     NaN      1.0        True  wye
165  Load 25 T10   13 -3.356837e-06  0.009154              0.0              0.0     NaN      1.0        True  wye
166  Load 25 T11   13  0.000000e+00  0.009444              0.0              0.0     NaN      1.0        True  wye
167  Load 25 T12   13  1.165475e-03  0.010820              0.0              0.0     NaN      1.0        True  wye
168   Load 26 T1   14  1.394642e-02  0.010953              0.0              0.0     NaN      1.0        True  wye
169   Load 26 T2   14  1.087633e-02  0.011417              0.0              0.0     NaN      1.0        True  wye
170   Load 26 T3   14  1.361265e-02  0.013133              0.0              0.0     NaN      1.0        True  wye
171   Load 26 T4   14  1.477798e-02  0.011731              0.0              0.0     NaN      1.0        True  wye
172   Load 26 T5   14  1.473966e-02  0.014206              0.0              0.0     NaN      1.0        True  wye
173   Load 26 T6   14  1.307809e-02  0.014262              0.0              0.0     NaN      1.0        True  wye
174   Load 26 T7   14  1.368140e-02  0.013624              0.0              0.0     NaN      1.0        True  wye
175   Load 26 T8   14 -1.081429e-07  0.010037              0.0              0.0     NaN      1.0        True  wye
176   Load 26 T9   14 -1.146369e-07  0.009961              0.0              0.0     NaN      1.0        True  wye
177  Load 26 T10   14 -1.184411e-07  0.010985              0.0              0.0     NaN      1.0        True  wye
178  Load 26 T11   14 -5.799835e-06  0.011333              0.0              0.0     NaN      1.0        True  wye
179  Load 26 T12   14 -4.336640e-04  0.012984              0.0              0.0     NaN      1.0        True  wye
--------------------------------------------------

EXT_GRID:
        name  bus  vm_pu  va_degree  slack_weight  in_service
0  ExtGrid 0   19    1.0        0.0           1.0        True
1  ExtGrid 1   21    1.0        0.0           1.0        True
--------------------------------------------------

LINE:
       name std_type  from_bus  to_bus  length_km  r_ohm_per_km  x_ohm_per_km  c_nf_per_km  g_us_per_km  max_i_ka   df  parallel  type  in_service
0    Line 0     None        20      15   0.400000        0.5502         0.429          0.0          0.0      0.23  1.0         1  None        True
1    Line 7     None        22      17   1.100000        0.5502         0.429          0.0          0.0      0.23  1.0         1  None        True
2    Line 8     None        15       9   0.316228        0.5502         0.429          0.0          0.0      0.23  1.0         1  None        True
3   Line 17     None        17      12   0.141421        0.5502         0.429          0.0          0.0      0.23  1.0         1  None        True
4   Line 19     None        17      14   0.223607        0.5502         0.429          0.0          0.0      0.23  1.0         1  None        True
5   Line 20     None        16       0   0.136015        0.5502         0.429          0.0          0.0      0.23  1.0         1  None        True
6   Line 34     None        18       5   0.225610        0.5502         0.429          0.0          0.0      0.23  1.0         1  None        True
7   Line 36     None        18       7   0.196469        0.5502         0.429          0.0          0.0      0.23  1.0         1  None        True
8   Line 37     None        18       8   0.050000        0.5502         0.429          0.0          0.0      0.23  1.0         1  None        True
9   Line 38     None        10       9   0.141421        0.5502         0.429          0.0          0.0      0.23  1.0         1  None        True
10  Line 40     None        11      10   0.200000        0.5502         0.429          0.0          0.0      0.23  1.0         1  None        True
11  Line 43     None        14      13   0.200000        0.5502         0.429          0.0          0.0      0.23  1.0         1  None        True
12  Line 44     None         1       0   0.172047        0.5502         0.429          0.0          0.0      0.23  1.0         1  None        True
13  Line 46     None         3       0   0.194165        0.5502         0.429          0.0          0.0      0.23  1.0         1  None        True
14  Line 47     None         2       1   0.263059        0.5502         0.429          0.0          0.0      0.23  1.0         1  None        True
15  Line 52     None         8       4   0.353836        0.5502         0.429          0.0          0.0      0.23  1.0         1  None        True
16  Line 53     None         6       5   0.253180        0.5502         0.429          0.0          0.0      0.23  1.0         1  None        True
--------------------------------------------------

TRAFO:
                  name std_type  hv_bus  lv_bus  sn_mva  vn_hv_kv  vn_lv_kv  vk_percent  vkr_percent  pfe_kw  i0_percent  shift_degree tap_side  tap_neutral  tap_min  tap_max  tap_step_percent  tap_step_degree  tap_pos  tap_phase_shifter  parallel   df  in_service
0  MV/LV Transformer 2     None      15      16    10.0      15.0       0.4        0.01         0.01    0.01        0.01           0.0     None          NaN      NaN      NaN               NaN              NaN      NaN              False         1  1.0        True
1  MV/LV Transformer 5     None      17      18    10.0      15.0       0.4        0.01         0.01    0.01        0.01           0.0     None          NaN      NaN      NaN               NaN              NaN      NaN              False         1  1.0        True
2  Slack Transformer 0     None      19      20    40.0      70.0      15.0        0.01         0.01    0.01        0.01           0.0     None          NaN      NaN      NaN               NaN              NaN      NaN              False         1  1.0        True
3  Slack Transformer 1     None      21      22    40.0      70.0      15.0        0.01         0.01    0.01        0.01           0.0     None          NaN      NaN      NaN               NaN              NaN      NaN              False         1  1.0        True
--------------------------------------------------

BUS_GEODATA:
        x      y
0    11.0   48.0
1    25.0   38.0
2    51.0   42.0
3     0.0   64.0
4   129.0  138.0
5   105.0   88.0
6   130.0   92.0
7    81.0  115.0
8   103.0  114.0
9    10.0   70.0
10   20.0   80.0
11   40.0   80.0
12   90.0  120.0
13  120.0  120.0
14  120.0  100.0
15    0.0   40.0
16    0.5   39.5
17  100.0  110.0
18  100.5  109.5
19    0.0    0.0
20    0.5   -0.5
21  100.0    0.0
22  100.5   -0.5
--------------------------------------------------

RES_BUS:
       vm_pu  va_degree      p_mw    q_mvar
0   0.995978   0.294394 -0.000149  0.001082
1   0.993468   0.480442  0.000039  0.002164
2   0.991213   0.653985 -0.000066  0.003246
3   0.993612   0.457470  0.000140  0.004328
4   0.994183   0.501851 -0.000464  0.005410
5   0.994935   0.330988  0.000397  0.006492
6   0.994165   0.384183  0.000035  0.001082
7   0.998754   0.091625 -0.000004  0.002164
8   0.998802   0.096616 -0.000004  0.003246
9   0.999947   0.003953 -0.000329  0.010820
10  0.999941   0.004382 -0.000364  0.009738
11  0.999937   0.004708  0.000366  0.011902
12  0.999893   0.007755 -0.000329  0.006492
13  0.999879   0.008627  0.001165  0.010820
14  0.999884   0.008349 -0.000434  0.012984
15  0.999966   0.002504  0.000000  0.000000
16  0.999966   0.002510  0.000000  0.000000
17  0.999894   0.007621  0.000000  0.000000
18  0.999894   0.007632  0.000000  0.000000
19  1.000000   0.000000  0.000245 -0.048356
20  1.000000   0.000007  0.000000  0.000000
21  1.000000   0.000000 -0.000489 -0.053771
22  1.000000   0.000007  0.000000  0.000000
--------------------------------------------------

RES_LINE:
       p_from_mw  q_from_mvar       p_to_mw  q_to_mvar         pl_mw       ql_mvar  i_from_ka   i_to_ka      i_ka  vm_from_pu  va_from_degree  vm_to_pu  va_to_degree  loading_percent
0  -2.545981e-04     0.044356  2.565226e-04  -0.044354  1.924487e-06  1.500555e-06   0.001707  0.001707  0.001707    1.000000        0.000007  0.999966      0.002504         0.742299
1   4.787397e-04     0.049771 -4.720758e-04  -0.049766  6.663905e-06  5.195957e-06   0.001916  0.001916  0.001916    1.000000        0.000007  0.999894      0.007621         0.832951
2  -3.263666e-04     0.032460  3.271815e-04  -0.032460  8.149198e-07  6.354064e-07   0.001250  0.001250  0.001250    0.999966        0.002504  0.999947      0.003953         0.543261
3  -3.291335e-04     0.006492  3.291481e-04  -0.006492  1.461515e-08  1.139567e-08   0.000250  0.000250  0.000250    0.999894        0.007621  0.999893      0.007755         0.108792
4   7.321793e-04     0.023804 -7.318691e-04  -0.023804  3.101850e-07  2.418563e-07   0.000917  0.000917  0.000917    0.999894        0.007621  0.999884      0.008349         0.398583
5   5.984496e-05     0.010894 -4.328174e-06  -0.010851  5.551679e-05  4.328735e-05   0.015725  0.015725  0.015725    0.999966        0.002510  0.995978      0.294394         6.837077
6   4.784645e-04     0.007610 -4.333500e-04  -0.007575  4.511454e-05  3.517655e-05   0.011007  0.011007  0.011007    0.999894        0.007632  0.994935      0.330988         4.785531
7  -5.802651e-07     0.002166  3.751858e-06  -0.002164  3.171593e-06  2.472944e-06   0.003127  0.003127  0.003127    0.999894        0.007632  0.998754      0.091625         1.359700
8  -4.188544e-04     0.008694  4.318843e-04  -0.008684  1.302984e-05  1.015958e-05   0.012565  0.012565  0.012565    0.999894        0.007632  0.998802      0.096616         5.463057
9  -2.090108e-06    -0.021640  2.252067e-06   0.021640  1.619592e-07  1.262823e-07   0.000833  0.000833  0.000833    0.999941        0.004382  0.999947      0.003953         0.362157
10 -3.656558e-04    -0.011902  3.657251e-04   0.011902  6.935179e-08  5.407473e-08   0.000458  0.000458  0.000458    0.999937        0.004708  0.999941      0.004382         0.199281
11  1.165533e-03     0.010820 -1.165475e-03  -0.010820  5.793254e-08  4.517095e-08   0.000419  0.000419  0.000419    0.999884        0.008349  0.999879      0.008627         0.182137
12  1.702109e-05    -0.005417  5.717186e-07   0.005431  1.759281e-05  1.371741e-05   0.007871  0.007871  0.007871    0.993468        0.480442  0.995978      0.294394         3.422126
13 -1.402788e-04    -0.004328  1.529597e-04   0.004338  1.268095e-05  9.887544e-06   0.006290  0.006290  0.006290    0.993612        0.457470  0.995978      0.294394         2.734902
14  6.582291e-05    -0.003246 -5.611831e-05   0.003254  9.704599e-06  7.566836e-06   0.004728  0.004728  0.004728    0.991213        0.653985  0.993468      0.480442         2.055481
15 -4.280574e-04     0.005438  4.643516e-04  -0.005410  3.629420e-05  2.829918e-05   0.007883  0.007883  0.007883    0.998802        0.096616  0.994183      0.501851         3.427431
16 -3.487220e-05    -0.001082  3.590449e-05   0.001083  1.032291e-06  8.048940e-07   0.001572  0.001572  0.001572    0.994165        0.384183  0.994935      0.330988         0.683341
--------------------------------------------------

RES_TRAFO:
    p_hv_mw  q_hv_mvar   p_lv_mw  q_lv_mvar    pl_mw  ql_mvar   i_hv_ka   i_lv_ka  vm_hv_pu  va_hv_degree  vm_lv_pu  va_lv_degree  loading_percent
0  0.000070   0.011894 -0.000060  -0.010894  0.00001    0.001  0.000458  0.015725  0.999966      0.002504  0.999966      0.002510         0.118947
1  0.000069   0.019470 -0.000059  -0.018471  0.00001    0.001  0.000749  0.026663  0.999894      0.007621  0.999894      0.007632         0.194725
2 -0.000245   0.048356  0.000255  -0.044356  0.00001    0.004  0.000399  0.001707  1.000000      0.000000  1.000000      0.000007         0.120891
3  0.000489   0.053771 -0.000479  -0.049771  0.00001    0.004  0.000444  0.001916  1.000000      0.000000  1.000000      0.000007         0.134434
--------------------------------------------------

RES_EXT_GRID:
       p_mw    q_mvar
0 -0.000245  0.048356
1  0.000489  0.053771
--------------------------------------------------

RES_LOAD:
         p_mw    q_mvar
0    0.000000  0.000000
1    0.000000  0.000000
2    0.000000  0.000000
3    0.000000  0.000000
4    0.000000  0.000000
5    0.000000  0.000000
6    0.000000  0.000000
7    0.000000  0.000000
8    0.000000  0.000000
9   -0.000000  0.000000
10  -0.000000  0.000000
11  -0.000149  0.001082
12   0.000000  0.000000
13   0.000000  0.000000
14   0.000000  0.000000
15   0.000000  0.000000
16   0.000000  0.000000
17   0.000000  0.000000
18   0.000000  0.000000
19  -0.000000  0.000000
20  -0.000000  0.000000
21   0.000000  0.000000
22   0.000000  0.000000
23   0.000039  0.002164
24   0.000000  0.000000
25   0.000000  0.000000
26   0.000000  0.000000
27   0.000000  0.000000
28   0.000000  0.000000
29   0.000000  0.000000
30   0.000000  0.000000
31  -0.000000  0.000000
32  -0.000000  0.000000
33  -0.000000  0.000000
34   0.000000  0.000000
35  -0.000066  0.003246
36   0.000000  0.000000
37   0.000000  0.000000
38   0.000000  0.000000
39   0.000000  0.000000
40   0.000000  0.000000
41   0.000000  0.000000
42   0.000000  0.000000
43   0.000000  0.000000
44  -0.000000  0.000000
45   0.000000  0.000000
46   0.000000  0.000000
47   0.000140  0.004328
48   0.000000  0.000000
49   0.000000  0.000000
50   0.000000  0.000000
51   0.000000  0.000000
52   0.000000  0.000000
53   0.000000  0.000000
54   0.000000  0.000000
55  -0.000000  0.000000
56  -0.000000  0.000000
57  -0.000000  0.000000
58  -0.000000  0.000000
59  -0.000464  0.005410
60   0.000000  0.000000
61   0.000000  0.000000
62   0.000000  0.000000
63   0.000000  0.000000
64   0.000000  0.000000
65   0.000000  0.000000
66   0.000000  0.000000
67  -0.000000  0.000000
68  -0.000000  0.000000
69  -0.000000  0.000000
70  -0.000000  0.000000
71   0.000397  0.006492
72   0.000000  0.000000
73   0.000000  0.000000
74   0.000000  0.000000
75   0.000000  0.000000
76   0.000000  0.000000
77   0.000000  0.000000
78   0.000000  0.000000
79   0.000000  0.000000
80   0.000000  0.000000
81  -0.000000  0.000000
82   0.000000  0.000000
83   0.000035  0.001082
84   0.000000  0.000000
85   0.000000  0.000000
86   0.000000  0.000000
87   0.000000  0.000000
88   0.000000  0.000000
89   0.000000  0.000000
90   0.000000  0.000000
91  -0.000000  0.000000
92  -0.000000  0.000000
93  -0.000000  0.000000
94  -0.000000  0.000000
95  -0.000004  0.002164
96   0.000000  0.000000
97   0.000000  0.000000
98   0.000000  0.000000
99   0.000000  0.000000
100  0.000000  0.000000
101  0.000000  0.000000
102  0.000000  0.000000
103 -0.000000  0.000000
104  0.000000  0.000000
105 -0.000000  0.000000
106  0.000000  0.000000
107 -0.000004  0.003246
108  0.000000  0.000000
109  0.000000  0.000000
110  0.000000  0.000000
111  0.000000  0.000000
112  0.000000  0.000000
113  0.000000  0.000000
114  0.000000  0.000000
115  0.000000  0.000000
116 -0.000000  0.000000
117 -0.000000  0.000000
118 -0.000000  0.000000
119 -0.000329  0.010820
120  0.000000  0.000000
121  0.000000  0.000000
122  0.000000  0.000000
123  0.000000  0.000000
124  0.000000  0.000000
125  0.000000  0.000000
126  0.000000  0.000000
127  0.000000  0.000000
128  0.000000  0.000000
129 -0.000000  0.000000
130 -0.000000  0.000000
131 -0.000364  0.009738
132  0.000000  0.000000
133  0.000000  0.000000
134  0.000000  0.000000
135  0.000000  0.000000
136  0.000000  0.000000
137  0.000000  0.000000
138  0.000000  0.000000
139 -0.000000  0.000000
140  0.000000  0.000000
141  0.000000  0.000000
142  0.000000  0.000000
143  0.000366  0.011902
144  0.000000  0.000000
145  0.000000  0.000000
146  0.000000  0.000000
147  0.000000  0.000000
148  0.000000  0.000000
149  0.000000  0.000000
150  0.000000  0.000000
151  0.000000  0.000000
152  0.000000  0.000000
153  0.000000  0.000000
154  0.000000  0.000000
155 -0.000329  0.006492
156  0.000000  0.000000
157  0.000000  0.000000
158  0.000000  0.000000
159  0.000000  0.000000
160  0.000000  0.000000
161  0.000000  0.000000
162  0.000000  0.000000
163  0.000000  0.000000
164 -0.000000  0.000000
165 -0.000000  0.000000
166  0.000000  0.000000
167  0.001165  0.010820
168  0.000000  0.000000
169  0.000000  0.000000
170  0.000000  0.000000
171  0.000000  0.000000
172  0.000000  0.000000
173  0.000000  0.000000
174  0.000000  0.000000
175 -0.000000  0.000000
176 -0.000000  0.000000
177 -0.000000  0.000000
178 -0.000000  0.000000
179 -0.000434  0.012984
--------------------------------------------------
